*MODEL INPUT FILE            B    22     1    14   999     0
*FILES              
MODEL          CSCER045
FILEX          SWSW7501.WHX C:\DSSAT45\WHEAT\                                                               
FILEA          SWSW7501.WHA C:\DSSAT45\WHEAT\                                                               
FILET          SWSW7501.WHT C:\DSSAT45\WHEAT\                                                               
SPECIES        WHCER045.SPE C:\DSSAT45\GENOTYPE\                                                            
ECOTYPE        WHCER045.ECO C:\DSSAT45\GENOTYPE\                                                            
CULTIVAR       WHCER045.CUL C:\DSSAT45\GENOTYPE\                                                            
PESTS          WHCER045.PST C:\DSSAT45\PEST\                                                                
SOILS          SOIL.SOL     C:\DSSAT45\SOIL\                                                                
WEATHER        SWSW7501.WTH C:\DSSAT45\Weather\                                                             
OUTPUT         OVERVIEW
*SIMULATION CONTROL 
                   1     1     S 1975132  2150 N RESPONSE,SWIFT CURRENT 
                   Y     Y     N     N     N     N     N     N     M
                   M     M     E     R     S     C     R     1     G     S     2
                   R     R     R     N     M
                   N     Y     Y     1     Y     N     Y     Y     N     N     Y     N     N
!AUTOMATIC MANAGEM  
               1975138 1975152   40.  100.   30.   40.   10.
                 30.   50.  100. GS000 IR001  10.0 1.000
                 30.   50.   25. FE001 GS000
                100.     1   20.
                     0 1976145  100.    0.
*EXP.DETAILS        
  1SWSW7501 WH N RESPONSE,SWIFT CURRENT  7FE(N)*2IR  (DSSAT3)              
*TREATMENTS         
 14 1 0 0 164.0 KG N/HA IRRIG      
*CULTIVARS          
   WH IB1500 MANITOU         
*FIELDS             
   SWSW0001 SWSW7501   0.0    0. DR000    0. 100.0 00000 -99    150. IBWH980019
           0.00000         0.00000      0.00               1.0  100.   1.0   0.0   -99   -99
*INITIAL CONDITIONS 
   WH    1975132   500     0  1.00  1.00   0.0  1000  0.89  0.00  100.   10.
      5. 0.230  4.00  4.50
     15. 0.230  4.00  3.50
     30. 0.250  4.00  2.20
     45. 0.220  3.00  2.00
     60. 0.220  2.00  2.00
     75. 0.220  2.00  2.00
     90. 0.250  1.00  2.20
    120. 0.250  1.00  1.00
    150. 0.250  1.00  1.00
*PLANTING DETAILS   
   1975145     -99 250.0 250.0     S     R   16.    0.   3.0  -99.  -99. -99.0 -99.0 -99.0
*IRRIGATION         
   1.000   30.   75.  -99. GS000 IR001   0.0
   1975150 IR001  13.0
   1975160 IR001  13.0
   1975163 IR001  13.0
   1975176 IR001  13.0
   1975184 IR001  13.0
   1975189 IR001  13.0
   1975190 IR001  13.0
   1975192 IR001  13.0
   1975193 IR001  13.0
   1975196 IR001  25.0
   1975198 IR001  25.0
   1975202 IR001  25.0
   1975204 IR001  25.0
   1975205 IR001  25.0
   1975210 IR001  25.0
*FERTILIZERS        
   1975141 FE017 AP001   10.  164.    0.    0.    0.    0.   -99
*RESIDUES           
*CHEMICALS          
*TILLAGE            
*ENVIRONMENT        
*HARVEST            
*SOIL               
 IBWH980019  Swift       -99    150. Wood Mountain Loam                                
 Swift_Curr  Canada       -0.009  -0.099 Orthic Brown Chernozem                            
 -99    0.12   8.0  0.50   60.  1.00  1.00 IB001 IB001 IB001 -99  
    5.       0.096 0.230 0.440 1.000  -99.  1.20 1.100 -99.0 -99.0 -99.0  -9.0  7.00-99.00-99.00-99.00
   15.       0.096 0.230 0.440 1.000  -99.  1.20 1.100 -99.0 -99.0 -99.0  -9.0  7.00-99.00-99.00-99.00
   30.       0.112 0.250 0.440 1.000  -99.  1.20 0.610 -99.0 -99.0 -99.0  -9.0  7.00-99.00-99.00-99.00
   45.       0.094 0.220 0.440 0.800  -99.  1.20 0.610 -99.0 -99.0 -99.0  -9.0  7.00-99.00-99.00-99.00
   60.       0.103 0.220 0.440 0.700  -99.  1.20 0.590 -99.0 -99.0 -99.0  -9.0  7.00-99.00-99.00-99.00
   75.       0.103 0.220 0.440 0.600  -99.  1.20 0.150 -99.0 -99.0 -99.0  -9.0  7.00-99.00-99.00-99.00
   90.       0.102 0.250 0.440 0.400  -99.  1.20 0.100 -99.0 -99.0 -99.0  -9.0  7.00-99.00-99.00-99.00
  120.       0.102 0.250 0.440 0.300  -99.  1.20 0.100 -99.0 -99.0 -99.0  -9.0  7.00-99.00-99.00-99.00
  150.       0.102 0.250 0.440 0.200  -99.  1.20 0.100 -99.0 -99.0 -99.0  -9.0  7.00-99.00-99.00-99.00
                    
    5.-99.00 -99.0 -99.0 -99.0 -99.0 -99.0 -99.0 -99.0 -99.0 -99.0-99.00 -99.0 -99.0 -99.0 -99.0 -99.0  -99.
   15.-99.00 -99.0 -99.0 -99.0 -99.0 -99.0 -99.0 -99.0 -99.0 -99.0-99.00 -99.0 -99.0 -99.0 -99.0 -99.0  -99.
   30.-99.00 -99.0 -99.0 -99.0 -99.0 -99.0 -99.0 -99.0 -99.0 -99.0-99.00 -99.0 -99.0 -99.0 -99.0 -99.0  -99.
   45.-99.00 -99.0 -99.0 -99.0 -99.0 -99.0 -99.0 -99.0 -99.0 -99.0-99.00 -99.0 -99.0 -99.0 -99.0 -99.0  -99.
   60.-99.00 -99.0 -99.0 -99.0 -99.0 -99.0 -99.0 -99.0 -99.0 -99.0-99.00 -99.0 -99.0 -99.0 -99.0 -99.0  -99.
   75.-99.00 -99.0 -99.0 -99.0 -99.0 -99.0 -99.0 -99.0 -99.0 -99.0-99.00 -99.0 -99.0 -99.0 -99.0 -99.0  -99.
   90.-99.00 -99.0 -99.0 -99.0 -99.0 -99.0 -99.0 -99.0 -99.0 -99.0-99.00 -99.0 -99.0 -99.0 -99.0 -99.0  -99.
  120.-99.00 -99.0 -99.0 -99.0 -99.0 -99.0 -99.0 -99.0 -99.0 -99.0-99.00 -99.0 -99.0 -99.0 -99.0 -99.0  -99.
  150.-99.00 -99.0 -99.0 -99.0 -99.0 -99.0 -99.0 -99.0 -99.0 -99.0-99.00 -99.0 -99.0 -99.0 -99.0 -99.0  -99.
*CULTIVAR           
