*MODEL INPUT FILE            B     3     1     3   999     0
*FILES              
MODEL          SGCER045
FILEX          CSKU8201.SGX C:\DSSAT45\Sorghum\                                                             
FILEA          CSKU8201.SGA C:\DSSAT45\Sorghum\                                                             
FILET          CSKU8201.SGT C:\DSSAT45\Sorghum\                                                             
SPECIES        SGCER045.SPE C:\DSSAT45\GENOTYPE\                                                            
ECOTYPE        SGCER045.ECO C:\DSSAT45\GENOTYPE\                                                            
CULTIVAR       SGCER045.CUL C:\DSSAT45\GENOTYPE\                                                            
PESTS          SGCER045.PST C:\DSSAT45\PEST\                                                                
SOILS          SOIL.SOL     C:\DSSAT45\SOIL\                                                                
WEATHER        CSKU8201.WTH C:\DSSAT45\Weather\                                                             
OUTPUT         OVERVIEW
*SIMULATION CONTROL 
                   1     1     S 1982145  2150 Kununurra Irrigation Exp 
                   Y     Y     N     N     N     N     N     N     M
                   M     M     E     R     S     C     R     1     G     S     2
                   R     R     R     N     M
                   N     Y     Y     1     Y     N     Y     Y     N     N     Y     N     N
!AUTOMATIC MANAGEM  
               1982139 1982153   40.  100.   30.   40.   10.
                 30.   50.  100. GS000 IR001  10.0 1.000
                 30.   50.   25. FE001 GS000
                100.     1   20.
                     0 1983146  100.    0.
*EXP.DETAILS        
  1CSKU8201 SG KUNNUNURRA IRRIGATION EXP 1982                              
*TREATMENTS         
  3 1 0 0 Sprinkler IR, 170 kg N/ha
*CULTIVARS          
   SG IB0040 RS610           
*FIELDS             
   CSKU0001 CSKU8201   0.0    0. DR000    0. 100.0 00000 -99    130. IBSG910011
           0.00000         0.00000      0.00               1.0  100.   1.0   0.0   -99   -99
*INITIAL CONDITIONS 
   SG    1982145  2000     0  1.00  1.00   0.0  3000  1.60  0.00  100.   10.
      5. 0.231  4.00  10.0
     15. 0.228  1.00  10.0
     20. 0.228  1.00  10.0
     30. 0.231  1.00  5.00
     40. 0.228  1.00  2.00
     50. 0.241 0.500  1.00
     60. 0.236 0.500 0.500
     70. 0.236 0.500 0.500
     90. 0.241 0.500 0.500
    110. 0.256 0.500 0.500
    130. 0.256 0.500 0.500
*PLANTING DETAILS   
   1982146     -99  20.0  20.0     S     R   75.    0.   5.0  -99.  -99. -99.0 -99.0   0.0
*IRRIGATION         
   1.000   30.   75.  -99. GS000 IR001   0.0
   1982156 IR001  50.0
   1982166 IR001  50.0
   1982177 IR001  50.0
   1982189 IR001  50.0
   1982200 IR001  50.0
   1982211 IR001  50.0
   1982221 IR001  50.0
   1982230 IR001  50.0
   1982239 IR001  50.0
   1982248 IR001  50.0
*FERTILIZERS        
   1982146 FE005   001    5.  170.  -99.  -99.  -99.  -99.   -99
*RESIDUES           
*CHEMICALS          
*TILLAGE            
*ENVIRONMENT        
*HARVEST            
*SOIL               
 IBSG910011  IBSNAT      -99    130. Weakly self-mulching grey medium to heavy clay    
 -99         -99          -0.009  -0.099 HEAVY CLAY                                        
 -99    0.13   6.0  0.50   60.  0.00  0.90 IB001 IB001 IB001 -99  
    5.       0.154 0.231 0.414 1.000  -99.  1.10 2.000 -99.0 -99.0 -99.0  -9.0  7.00-99.00-99.00-99.00
   15.       0.153 0.228 0.290 0.900  -99.  1.30 1.000 -99.0 -99.0 -99.0  -9.0  7.00-99.00-99.00-99.00
   20.       0.153 0.228 0.290 0.900  -99.  1.30 1.000 -99.0 -99.0 -99.0  -9.0  7.00-99.00-99.00-99.00
   30.       0.164 0.231 0.273 0.800  -99.  1.40 0.900 -99.0 -99.0 -99.0  -9.0  7.00-99.00-99.00-99.00
   40.       0.166 0.228 0.277 0.700  -99.  1.50 0.800 -99.0 -99.0 -99.0  -9.0  7.00-99.00-99.00-99.00
   50.       0.164 0.241 0.296 0.600  -99.  1.50 0.600 -99.0 -99.0 -99.0  -9.0  7.00-99.00-99.00-99.00
   60.       0.169 0.236 0.285 0.500  -99.  1.50 0.500 -99.0 -99.0 -99.0  -9.0  7.00-99.00-99.00-99.00
   70.       0.169 0.236 0.285 0.500  -99.  1.50 0.500 -99.0 -99.0 -99.0  -9.0  7.00-99.00-99.00-99.00
   90.       0.172 0.241 0.284 0.400  -99.  1.50 0.300 -99.0 -99.0 -99.0  -9.0  7.00-99.00-99.00-99.00
  110.       0.180 0.256 0.308 0.200  -99.  1.50 0.300 -99.0 -99.0 -99.0  -9.0  7.00-99.00-99.00-99.00
  130.       0.180 0.256 0.308 0.050  -99.  1.60 0.200 -99.0 -99.0 -99.0  -9.0  7.00-99.00-99.00-99.00
                    
    5.-99.00 -99.0 -99.0 -99.0 -99.0 -99.0 -99.0 -99.0 -99.0 -99.0-99.00 -99.0 -99.0 -99.0 -99.0 -99.0  -99.
   15.-99.00 -99.0 -99.0 -99.0 -99.0 -99.0 -99.0 -99.0 -99.0 -99.0-99.00 -99.0 -99.0 -99.0 -99.0 -99.0  -99.
   20.-99.00 -99.0 -99.0 -99.0 -99.0 -99.0 -99.0 -99.0 -99.0 -99.0-99.00 -99.0 -99.0 -99.0 -99.0 -99.0  -99.
   30.-99.00 -99.0 -99.0 -99.0 -99.0 -99.0 -99.0 -99.0 -99.0 -99.0-99.00 -99.0 -99.0 -99.0 -99.0 -99.0  -99.
   40.-99.00 -99.0 -99.0 -99.0 -99.0 -99.0 -99.0 -99.0 -99.0 -99.0-99.00 -99.0 -99.0 -99.0 -99.0 -99.0  -99.
   50.-99.00 -99.0 -99.0 -99.0 -99.0 -99.0 -99.0 -99.0 -99.0 -99.0-99.00 -99.0 -99.0 -99.0 -99.0 -99.0  -99.
   60.-99.00 -99.0 -99.0 -99.0 -99.0 -99.0 -99.0 -99.0 -99.0 -99.0-99.00 -99.0 -99.0 -99.0 -99.0 -99.0  -99.
   70.-99.00 -99.0 -99.0 -99.0 -99.0 -99.0 -99.0 -99.0 -99.0 -99.0-99.00 -99.0 -99.0 -99.0 -99.0 -99.0  -99.
   90.-99.00 -99.0 -99.0 -99.0 -99.0 -99.0 -99.0 -99.0 -99.0 -99.0-99.00 -99.0 -99.0 -99.0 -99.0 -99.0  -99.
  110.-99.00 -99.0 -99.0 -99.0 -99.0 -99.0 -99.0 -99.0 -99.0 -99.0-99.00 -99.0 -99.0 -99.0 -99.0 -99.0  -99.
  130.-99.00 -99.0 -99.0 -99.0 -99.0 -99.0 -99.0 -99.0 -99.0 -99.0-99.00 -99.0 -99.0 -99.0 -99.0 -99.0  -99.
*CULTIVAR           
IB0040 RS610            IB0001  460.0 12.50  90.0 600.0   5.0   6.0 49.00 152.5  81.5 102.0 617.5
