*MODEL INPUT FILE            B     1     1     4   999     0
*FILES              
MODEL          CRGRO045
FILEX          UFGA0701.TMX C:\DSSAT45\TOMATO\                                                              
FILEA          UFGA0701.TMA C:\DSSAT45\TOMATO\                                                              
FILET          UFGA0701.TMT C:\DSSAT45\TOMATO\                                                              
SPECIES        TMGRO045.SPE C:\DSSAT45\GENOTYPE\                                                            
ECOTYPE        TMGRO045.ECO C:\DSSAT45\GENOTYPE\                                                            
CULTIVAR       TMGRO045.CUL C:\DSSAT45\GENOTYPE\                                                            
PESTS          TMGRO045.PST C:\DSSAT45\PEST\                                                                
SOILS          SOIL.SOL     C:\DSSAT45\SOIL\                                                                
WEATHER        UFGA0701.WTH C:\DSSAT45\Weather\                                                             
OUTPUT         OVERVIEW
*SIMULATION CONTROL 
                   1     1     S 2007046  2150 Water stress, WB ON      
                   Y     N     N     N     N     N     N     N     M
                   M     M     E     R     S     L     R     1     G     S     2
                   R     R     R     N     R
                   N     Y     Y     1     Y     Y     Y     Y     N     N     Y     N     N
!AUTOMATIC MANAGEM  
               1995051 1995051   40.  100.   30.   45.   40.
                 30.   80.  100. GS000 SI005   5.0 1.000
                200.   50.   25. SI001 SI001
                100.    60   20.
                   169 1995169   75.    0.
*EXP.DETAILS        
  1UFGA0701 TM SPRING 2007,FLA 47,DRIP-IRR.                                
*TREATMENTS         
  4 1 1 1 07-Ctrl"W on"            
*CULTIVARS          
   TM TM0001 Florida 47 2010 
*FIELDS             
   UFIM0001 UFGA0701   0.0    0. DR000    0. 100.0 00000 SA     201. UFGA017000
         -99.00000       -99.00000    -99.00               1.0  100.   1.0 -99.0   -99   -99
*INITIAL CONDITIONS 
   FA    2007050     1     0  1.00  1.00 -99.0   -99 -9.00 -9.00  -99.  -99.
      5. 0.092 0.200  1.00
     15. 0.075 0.200  1.00
     30. 0.059 0.200  1.00
     45. 0.058 0.140 0.700
     60. 0.057 0.100 0.500
     90. 0.087 0.100 0.353
    120. 0.169 0.030 0.030
    150. 0.400   0.0   0.0
    180. 0.400   0.0   0.0
*PLANTING DETAILS   
   2007097 2007097   1.2   1.2     T     R  183.   90.   1.0    3.   29.  25.0   1.0 -99.0
*IRRIGATION         
   1.000   20.   80.   95. GS000 IR001   0.0
   2007096 IR005   2.9
   2007097 IR005   2.9
   2007098 IR005  12.0
   2007099 IR005   2.9
   2007100 IR005   2.9
   2007101 IR005   2.9
   2007102 IR005   2.9
   2007103 IR005   2.9
   2007104 IR005   2.9
   2007105 IR005   2.9
   2007106 IR005   2.9
   2007107 IR005   2.9
   2007108 IR005   2.9
   2007109 IR005   2.9
   2007110 IR005   2.9
   2007111 IR005   2.9
   2007112 IR005   2.9
   2007113 IR005   2.9
   2007114 IR005   5.4
   2007115 IR005   7.4
   2007116 IR005  11.4
   2007117 IR005   5.4
   2007118 IR005  10.4
   2007119 IR005  17.0
   2007120 IR005   5.4
   2007121 IR005  16.5
   2007122 IR005   9.4
   2007123 IR005   7.4
   2007124 IR005  16.0
   2007125 IR005   5.4
   2007126 IR005   7.4
   2007127 IR005   7.4
   2007128 IR005   5.3
   2007129 IR005   5.3
   2007130 IR005   5.3
   2007131 IR005   5.3
   2007131 IR005   5.3
   2007132 IR005   5.3
   2007133 IR005   5.0
   2007134 IR005   5.0
   2007135 IR005   5.0
   2007136 IR005   5.0
   2007137 IR005   5.0
   2007138 IR005   5.0
   2007139 IR005   5.0
   2007140 IR005   5.0
   2007141 IR005   5.0
   2007142 IR005   5.0
   2007143 IR005   5.0
   2007144 IR005   5.0
   2007145 IR005   5.0
   2007146 IR005   5.0
   2007147 IR005   5.0
   2007148 IR005   5.0
   2007149 IR005   5.0
   2007150 IR005   5.0
   2007151 IR005   5.0
   2007152 IR005   5.0
   2007153 IR005   5.0
   2007154 IR005   5.3
   2007155 IR005   5.3
   2007156 IR005   5.3
   2007157 IR005   5.3
   2007158 IR005   5.3
   2007159 IR005   5.3
   2007160 IR005   5.3
   2007161 IR005   5.3
   2007162 IR005   5.3
   2007163 IR005   5.3
   2007164 IR005   5.3
   2007165 IR005   5.3
   2007166 IR005   5.3
   2007167 IR005   5.3
   2007168 IR005   5.3
   2007169 IR005   5.3
   2007170 IR005   5.3
   2007171 IR005   5.3
   2007172 IR005   5.3
   2007173 IR005   5.3
   2007174 IR005   5.3
   2007175 IR005   5.3
   2007176 IR005   6.3
   2007177 IR005   6.3
   2007178 IR005   6.3
   2007179 IR005   6.3
   2007180 IR005   6.3
   2007181 IR005   6.3
   2007182 IR005   6.3
   2007183 IR005   6.3
   2007184 IR005   6.3
   2007185 IR005   6.3
   2007186 IR005   6.3
*FERTILIZERS        
   2007100 FE011 AP005   10.    9.   25.   12.  -99.    1.     0
   2007103 FE011 AP005    1.    9.    0.    0.  -99.    0.   -99
   2007107 FE011 AP005    1.   18.    0.   12.  -99.    1.   -99
   2007114 FE011 AP005    1.   24.    0.   16.  -99.    1.   -99
   2007121 FE011 AP005    1.   24.    0.   16.  -99.    1.   -99
   2007128 FE011 AP005    1.   39.    0.   24.  -99.    1.   -99
   2007135 FE011 AP005    1.   39.    0.   24.  -99.    1.   -99
   2007137 FE011 AP005    1.   39.    0.   24.  -99.    1.   -99
   2007142 FE011 AP005    1.   29.    0.   24.  -99.    1.   -99
   2007149 FE011 AP005    1.   29.    0.   24.  -99.    1.   -99
   2007156 FE011 AP005    1.   29.    0.   24.  -99.    1.   -99
   2007163 FE011 AP005    1.   29.    0.   24.  -99.    1.   -99
   2007170 FE011 AP005    1.   29.    0.   26.  -99.    1.   -99
   2007177 FE011 AP005    1.   24.    0.   12.  -99.    1.   -99
   2007184 FE011 AP005    1.   24.    0.   12.  -99.    1.   -99
*RESIDUES           
*CHEMICALS          
*TILLAGE            
*ENVIRONMENT        
*HARVEST            
   2007186 GS000   -99   -99  100.    0.
*SOIL               
 UFGA017000  SCS         SA     201. Tavares                                           
 Gainesville USA          29.600 -82.370 Sand uncoated                                     
 Y      0.17   6.0  0.40   64.  1.00  0.95 IB001 IB001 IB001 -99  
    5.       0.072 0.142 0.364 1.000  21.0  1.60 1.410   1.5   1.5 -99.0  -9.0  4.20-99.00-99.00-99.00
   15.       0.072 0.142 0.364 1.000  21.0  1.60 1.410   1.5   1.5 -99.0  -9.0  4.20-99.00-99.00-99.00
   30.       0.051 0.102 0.371 0.638  21.0  1.60 0.660   1.5   1.2 -99.0  -9.0  4.30-99.00-99.00-99.00
   45.       0.044 0.091 0.373 0.472  21.0  1.60 0.440   1.3   1.5 -99.0  -9.0  4.30-99.00-99.00-99.00
   60.       0.045 0.092 0.347 0.350  21.0  1.67 0.440   1.5   1.5 -99.0  -9.0  4.20-99.00-99.00-99.00
   90.       0.038 0.078 0.350 0.223  21.0  1.67 0.180   1.5   1.5 -99.0  -9.0  4.20-99.00-99.00-99.00
  120.       0.046 0.086 0.364 0.122  21.0  1.63 0.180   3.0   1.2 -99.0  -9.0  4.30-99.00-99.00-99.00
  150.       0.048 0.087 0.365 0.067  21.0  1.63 0.080   4.0   1.5 -99.0  -9.0  4.30-99.00-99.00-99.00
  180.       0.052 0.091 0.358 0.037  21.0  1.65 0.050   5.0   1.5 -99.0  -9.0  4.40-99.00-99.00-99.00
                    
    5.-99.00 -99.0 -99.0 -99.0 -99.0 -99.0 -99.0 -99.0 -99.0 -99.0-99.00 -99.0 -99.0 -99.0 -99.0 -99.0  -99.
   15.-99.00 -99.0 -99.0 -99.0 -99.0 -99.0 -99.0 -99.0 -99.0 -99.0-99.00 -99.0 -99.0 -99.0 -99.0 -99.0  -99.
   30.-99.00 -99.0 -99.0 -99.0 -99.0 -99.0 -99.0 -99.0 -99.0 -99.0-99.00 -99.0 -99.0 -99.0 -99.0 -99.0  -99.
   45.-99.00 -99.0 -99.0 -99.0 -99.0 -99.0 -99.0 -99.0 -99.0 -99.0-99.00 -99.0 -99.0 -99.0 -99.0 -99.0  -99.
   60.-99.00 -99.0 -99.0 -99.0 -99.0 -99.0 -99.0 -99.0 -99.0 -99.0-99.00 -99.0 -99.0 -99.0 -99.0 -99.0  -99.
   90.-99.00 -99.0 -99.0 -99.0 -99.0 -99.0 -99.0 -99.0 -99.0 -99.0-99.00 -99.0 -99.0 -99.0 -99.0 -99.0  -99.
  120.-99.00 -99.0 -99.0 -99.0 -99.0 -99.0 -99.0 -99.0 -99.0 -99.0-99.00 -99.0 -99.0 -99.0 -99.0 -99.0  -99.
  150.-99.00 -99.0 -99.0 -99.0 -99.0 -99.0 -99.0 -99.0 -99.0 -99.0-99.00 -99.0 -99.0 -99.0 -99.0 -99.0  -99.
  180.-99.00 -99.0 -99.0 -99.0 -99.0 -99.0 -99.0 -99.0 -99.0 -99.0-99.00 -99.0 -99.0 -99.0 -99.0 -99.0  -99.
*CULTIVAR           
TM0001 Florida 47 2010  TM0001 12.33 0.000 24.40  2.20 19.00 45.20 52.00 1.360 300.0 300.0  0.78 0.004 26.00300.00 55.00   8.5 0.300 0.050
