*MODEL INPUT FILE            B     4     1     4   999     0
*FILES              
MODEL          MLCER045
FILEX          ITHY8201.MLX C:\DSSAT45\Millet\                                                              
FILEA          ITHY8201.MLA C:\DSSAT45\Millet\                                                              
FILET          ITHY8201.MLT C:\DSSAT45\Millet\                                                              
SPECIES        MLCER045.SPE C:\DSSAT45\GENOTYPE\                                                            
ECOTYPE        MLCER045.ECO C:\DSSAT45\GENOTYPE\                                                            
CULTIVAR       MLCER045.CUL C:\DSSAT45\GENOTYPE\                                                            
PESTS          MLCER045.PST C:\DSSAT45\PEST\                                                                
SOILS          SOIL.SOL     C:\DSSAT45\SOIL\                                                                
WEATHER        ITHY8201.WTH C:\DSSAT45\Weather\                                                             
OUTPUT         OVERVIEW
*SIMULATION CONTROL 
                   1     1     S 1982167  2150 ICRISAT HYDERABAD CARBER 
                   Y     Y     N     N     N     N     N     N     M
                   M     M     E     R     S     C     R     1     G     S     2
                   R     N     R     N     M
                   N     Y     Y     1     Y     N     Y     Y     N     N     Y     N     N
!AUTOMATIC MANAGEM  
               1982161 1982175   40.  100.   30.   40.   10.
                 30.   50.  100. GS000 IR001  10.0 1.000
                 30.   50.   25. IFE01 GS000
                100.     1   20.
                     0 1983168  100.    0.
*EXP.DETAILS        
  1ITHY8201 ML ICRISAT HYDERABAD FOUR NITROGEN LEVELS (CARBERRY)           
*TREATMENTS         
  4 1 0 0 BJ 104,  25 kg N/ha      
*CULTIVARS          
   ML IB0033 BJ104           
*FIELDS             
   ITHY0001 ITHY8201   0.0    0. DR000    0. 100.0 00000 -99    156. IBML910083
           0.00000         0.00000      0.00               1.0  100.   1.0   0.0   -99   -99
*INITIAL CONDITIONS 
   ML    1982167   300     0  1.00  1.00   0.0   500  0.50  0.00  100.   30.
      5. 0.180  2.50  1.80
     15. 0.180  2.50  1.80
     22. 0.180  2.50  1.80
     37. 0.195  3.00  4.50
     52. 0.195  3.00  4.50
     67. 0.210  3.50  5.00
     82. 0.210  3.50  5.00
    112. 0.200  2.00  2.00
    127. 0.200  1.00 0.700
    156. 0.200  1.00 0.600
*PLANTING DETAILS   
   1982168     -99  15.0  15.0     S     R   75.    0.   5.0  -99.  -99. -99.0 -99.0   0.0
*IRRIGATION         
   1.000    0.    0.    0. GS000 IR001   0.0
*FERTILIZERS        
   1982168 FE005   001    5.   25.  -99.  -99.  -99.  -99.   -99
*RESIDUES           
*CHEMICALS          
*TILLAGE            
*ENVIRONMENT        
*HARVEST            
*SOIL               
 IBML910083  IBSNAT      -99    156. Medium Alfisol                                    
 -99         -99          -0.009  -0.099 MEDIUM ALFISOL                                    
 -99    0.13   6.0  0.50   60.  1.00  1.00 IB001 IB001 IB001 -99  
    5.       0.060 0.180 0.240 1.000  -99.  1.51 0.700 -99.0 -99.0 -99.0  -9.0  6.50-99.00-99.00-99.00
   15.       0.060 0.180 0.240 1.000  -99.  1.51 0.700 -99.0 -99.0 -99.0  -9.0  6.50-99.00-99.00-99.00
   22.       0.060 0.180 0.240 1.000  -99.  1.51 0.700 -99.0 -99.0 -99.0  -9.0  6.50-99.00-99.00-99.00
   37.       0.085 0.195 0.255 0.700  -99.  1.51 0.660 -99.0 -99.0 -99.0  -9.0  6.50-99.00-99.00-99.00
   52.       0.085 0.195 0.255 0.700  -99.  1.51 0.660 -99.0 -99.0 -99.0  -9.0  6.50-99.00-99.00-99.00
   67.       0.150 0.210 0.270 0.300  -99.  1.51 0.580 -99.0 -99.0 -99.0  -9.0  6.50-99.00-99.00-99.00
   82.       0.150 0.210 0.270 0.300  -99.  1.51 0.580 -99.0 -99.0 -99.0  -9.0  6.50-99.00-99.00-99.00
  112.       0.160 0.200 0.260 0.100  -99.  1.51 0.430 -99.0 -99.0 -99.0  -9.0  6.50-99.00-99.00-99.00
  127.       0.173 0.200 0.260 0.020  -99.  1.52 0.260 -99.0 -99.0 -99.0  -9.0  6.50-99.00-99.00-99.00
  156.       0.190 0.200 0.260 0.010  -99.  1.52 0.120 -99.0 -99.0 -99.0  -9.0  6.50-99.00-99.00-99.00
                    
    5.-99.00 -99.0 -99.0 -99.0 -99.0 -99.0 -99.0 -99.0 -99.0 -99.0-99.00 -99.0 -99.0 -99.0 -99.0 -99.0  -99.
   15.-99.00 -99.0 -99.0 -99.0 -99.0 -99.0 -99.0 -99.0 -99.0 -99.0-99.00 -99.0 -99.0 -99.0 -99.0 -99.0  -99.
   22.-99.00 -99.0 -99.0 -99.0 -99.0 -99.0 -99.0 -99.0 -99.0 -99.0-99.00 -99.0 -99.0 -99.0 -99.0 -99.0  -99.
   37.-99.00 -99.0 -99.0 -99.0 -99.0 -99.0 -99.0 -99.0 -99.0 -99.0-99.00 -99.0 -99.0 -99.0 -99.0 -99.0  -99.
   52.-99.00 -99.0 -99.0 -99.0 -99.0 -99.0 -99.0 -99.0 -99.0 -99.0-99.00 -99.0 -99.0 -99.0 -99.0 -99.0  -99.
   67.-99.00 -99.0 -99.0 -99.0 -99.0 -99.0 -99.0 -99.0 -99.0 -99.0-99.00 -99.0 -99.0 -99.0 -99.0 -99.0  -99.
   82.-99.00 -99.0 -99.0 -99.0 -99.0 -99.0 -99.0 -99.0 -99.0 -99.0-99.00 -99.0 -99.0 -99.0 -99.0 -99.0  -99.
  112.-99.00 -99.0 -99.0 -99.0 -99.0 -99.0 -99.0 -99.0 -99.0 -99.0-99.00 -99.0 -99.0 -99.0 -99.0 -99.0  -99.
  127.-99.00 -99.0 -99.0 -99.0 -99.0 -99.0 -99.0 -99.0 -99.0 -99.0-99.00 -99.0 -99.0 -99.0 -99.0 -99.0  -99.
  156.-99.00 -99.0 -99.0 -99.0 -99.0 -99.0 -99.0 -99.0 -99.0 -99.0-99.00 -99.0 -99.0 -99.0 -99.0 -99.0  -99.
*CULTIVAR           
IB0033 BJ104            IB0001  120.0 13.40 145.0 340.0  1.50  1.00 43.00
