*MODEL INPUT FILE            B    12     1    12   999     0
*FILES              
MODEL          CRGRO045
FILEX          ICBP8502.CHX C:\DSSAT45\CHICKPEA\                                                            
FILEA          ICBP8502.CHA C:\DSSAT45\CHICKPEA\                                                            
FILET          ICBP8502.CHT C:\DSSAT45\CHICKPEA\                                                            
SPECIES        CHGRO045.SPE C:\DSSAT45\GENOTYPE\                                                            
ECOTYPE        CHGRO045.ECO C:\DSSAT45\GENOTYPE\                                                            
CULTIVAR       CHGRO045.CUL C:\DSSAT45\GENOTYPE\                                                            
PESTS          CHGRO045.PST C:\DSSAT45\PEST\                                                                
SOILS          SOIL.SOL     C:\DSSAT45\SOIL\                                                                
WEATHER        ITHY8501.WTH C:\DSSAT45\Weather\                                                             
OUTPUT         OVERVIEW
*SIMULATION CONTROL 
                   1     1     S 1985310  2150 CHICKPEA YIELD RESPONSE  
                   Y     Y     Y     N     N     N     N     Y     M
                   M     M     E     R     S     L     R     1     G     S     1
                   R     R     R     N     M
                   N     Y     Y     1     Y     Y     Y     Y     N     N     Y     N     N
!AUTOMATIC MANAGEM  
               1985304 1985318   40.  100.   30.   40.   10.
                 30.   50.  100. GS000 IR001  10.0 1.000
                 30.   50.   25. FE001 GS000
                100.     1   20.
                     0 1986311  100.    0.
*EXP.DETAILS        
  1ICBP8502 CH 1985 ANNIGERI LINE SOURCE IRRIGATION                        
*TREATMENTS         
 12 1 0 0 G4 IRRIGATION;D5  DISTANC
*CULTIVARS          
   CH IB0001 ANNIGERI        
*FIELDS             
   ITBP0001 ITHY8501   0.0    0. DR000    0. 100.0 00000 -99    180. IBCH910008
           0.00000         0.00000      0.00               1.0  100.   1.0   0.0   -99   -99
*INITIAL CONDITIONS 
   PN    1985310   100     0  1.00  1.00   0.0  1000  0.53  0.00    0.   15.
      5. 0.305   0.0   0.0
     15. 0.331   0.0   0.0
     30. 0.302   0.0   0.0
     45. 0.280   0.0   0.0
     60. 0.272   0.0   0.0
     90. 0.224   0.0   0.0
    120. 0.178   0.0   0.0
    150. 0.159   0.0   0.0
    180. 0.151   0.0   0.0
*PLANTING DETAILS   
   1985311     -99  30.0  30.0     S     R   30.    0.   5.0  -99.  -99. -99.0 -99.0   0.0
*IRRIGATION         
   1.000   30.   75.  -99. GS000 IR001  10.0
   1985312 IR001  25.0
   1985313 IR001  10.0
   1985331 IR001  10.0
   1985339 IR001  38.0
   1985361 IR001  50.0
   1986008 IR001  28.0
*FERTILIZERS        
   1985314 FE005 AP009    5.   20.    0.    0.    0.    0.   -99
*RESIDUES           
*CHEMICALS          
*TILLAGE            
*ENVIRONMENT        
*HARVEST            
*SOIL               
 IBCH910008  IBSNAT      -99    180. VERY FINE MONTMORILLONITIC ISOHYPERTHERMIC        
 Patancheru  India        -0.009  -0.099 Vertisol                                          
 -99    0.13   6.0  0.70   95.  1.00  0.80 SA001 SA001 SA001 -99  
    5.       0.265 0.360 0.395 1.000  -99.  1.50 0.730 -99.0 -99.0 -99.0  -9.0  8.80-99.00-99.00-99.00
   15.       0.200 0.337 0.395 1.000  -99.  1.50 0.730 -99.0 -99.0 -99.0  -9.0  8.80-99.00-99.00-99.00
   30.       0.173 0.318 0.403 1.000  -99.  1.51 0.603 -99.0 -99.0 -99.0  -9.0  9.07-99.00-99.00-99.00
   45.       0.156 0.309 0.410 0.800  -99.  1.46 0.517 -99.0 -99.0 -99.0  -9.0  9.27-99.00-99.00-99.00
   60.       0.157 0.302 0.416 0.600  -99.  1.37 0.470 -99.0 -99.0 -99.0  -9.0  9.40-99.00-99.00-99.00
   90.       0.165 0.277 0.424 0.350  -99.  1.38 0.390 -99.0 -99.0 -99.0  -9.0  9.40-99.00-99.00-99.00
  120.       0.165 0.224 0.451 0.150  -99.  1.40 0.280 -99.0 -99.0 -99.0  -9.0  9.40-99.00-99.00-99.00
  150.       0.160 0.222 0.446 0.083  -99.  1.40 0.260 -99.0 -99.0 -99.0  -9.0  9.40-99.00-99.00-99.00
  180.       0.164 0.222 0.443 0.050  -99.  1.40 0.250 -99.0 -99.0 -99.0  -9.0  9.40-99.00-99.00-99.00
                    
    5.-99.00 -99.0 -99.0 -99.0 -99.0 -99.0 -99.0 -99.0 -99.0 -99.0-99.00 -99.0 -99.0 -99.0 -99.0 -99.0  -99.
   15.-99.00 -99.0 -99.0 -99.0 -99.0 -99.0 -99.0 -99.0 -99.0 -99.0-99.00 -99.0 -99.0 -99.0 -99.0 -99.0  -99.
   30.-99.00 -99.0 -99.0 -99.0 -99.0 -99.0 -99.0 -99.0 -99.0 -99.0-99.00 -99.0 -99.0 -99.0 -99.0 -99.0  -99.
   45.-99.00 -99.0 -99.0 -99.0 -99.0 -99.0 -99.0 -99.0 -99.0 -99.0-99.00 -99.0 -99.0 -99.0 -99.0 -99.0  -99.
   60.-99.00 -99.0 -99.0 -99.0 -99.0 -99.0 -99.0 -99.0 -99.0 -99.0-99.00 -99.0 -99.0 -99.0 -99.0 -99.0  -99.
   90.-99.00 -99.0 -99.0 -99.0 -99.0 -99.0 -99.0 -99.0 -99.0 -99.0-99.00 -99.0 -99.0 -99.0 -99.0 -99.0  -99.
  120.-99.00 -99.0 -99.0 -99.0 -99.0 -99.0 -99.0 -99.0 -99.0 -99.0-99.00 -99.0 -99.0 -99.0 -99.0 -99.0  -99.
  150.-99.00 -99.0 -99.0 -99.0 -99.0 -99.0 -99.0 -99.0 -99.0 -99.0-99.00 -99.0 -99.0 -99.0 -99.0 -99.0  -99.
  180.-99.00 -99.0 -99.0 -99.0 -99.0 -99.0 -99.0 -99.0 -99.0 -99.0-99.00 -99.0 -99.0 -99.0 -99.0 -99.0  -99.
*CULTIVAR           
IB0001 ANNIGERI         ANNIGE 11.00-0.143 30.00  8.00 15.00 35.00 42.00 1.700 150.0  10.0  1.00 0.181 29.00  1.20 18.00  85.0 0.216 0.048
