*MODEL INPUT FILE            B     8     1     8   999     0
*FILES              
MODEL          CRGRO045
FILEX          ALTH5601.BHX C:\DSSAT45\BAHIA\                                                               
FILEA          ALTH5601.BHA C:\DSSAT45\BAHIA\                                                               
FILET          ALTH5601.BHT C:\DSSAT45\BAHIA\                                                               
SPECIES        BHGRO045.SPE C:\DSSAT45\GENOTYPE\                                                            
ECOTYPE        BHGRO045.ECO C:\DSSAT45\GENOTYPE\                                                            
CULTIVAR       BHGRO045.CUL C:\DSSAT45\GENOTYPE\                                                            
PESTS          BHGRO045.PST C:\DSSAT45\PEST\                                                                
SOILS          SOIL.SOL     C:\DSSAT45\SOIL\                                                                
WEATHER        ALCL5601.WTH C:\DSSAT45\Weather\                                                             
OUTPUT         OVERVIEW
*SIMULATION CONTROL 
                   1     1     S 1956039  2150 BAHIA                    
                   Y     Y     N     N     N     Y     N     Y     M
                   M     M     E     R     S     C     R     1     G     S     2
                   R     A     R     N     R
                   N     N     Y     7     Y     Y     Y     Y     N     Y     Y     N     N
!AUTOMATIC MANAGEM  
               1956063 1956077   40.  100.   30.   40.   10.
                 60.   30.  100. IB001 IB001  10.0 0.000
                 30.   50.   25. IB001 IB001
                100.     1   20.
                     0 1957069  100.    0.
*EXP.DETAILS        
  1ALTH5601 BH BAHIA ON GREENVILLE FINE SANDY LOAM, 4 YR SEQ.              
*TREATMENTS         
  8 1 0 0 IRRIGATED - 672 KG N/HA  
*CULTIVARS          
   BH UF0001 PENSACOLA BAHIA 
*FIELDS             
   ALTH0001 ALCL5601   0.0    0. DR000    0. 100.0 00000 SL     180. UFWH940005
           0.00000         0.00000      0.00               1.0  100.   1.0   0.0   -99   -99
*INITIAL CONDITIONS 
   SB    1956070  1200     0  1.00  1.00   0.0  1000  0.80  0.00  100.   15.
      5. 0.087 0.300 0.800
     15. 0.113 0.300 0.800
     28. 0.219 0.300 0.800
     56. 0.299 0.200 0.700
     83. 0.299 0.200 0.700
    111. 0.299 0.200 0.700
    139. 0.299 0.200 0.700
    164. 0.299 0.200 0.500
    189. 0.299 0.200 0.500
*PLANTING DETAILS   
   1956070     -99 162.0 162.0     S     R   10.    0.   5.5  -99.  -99. -99.0 -99.0   0.0
*IRRIGATION         
   1.000    0.    0.    0. GS000 IR001   0.0
*FERTILIZERS        
   1956075 FE001 AP001    0.  134.  -99.  -99.  -99.  -99.   -99
   1956153 FE001 AP001    0.  134.  -99.  -99.  -99.  -99.   -99
   1956183 FE001 AP001    0.  134.  -99.  -99.  -99.  -99.   -99
   1956214 FE001 AP001    0.  134.  -99.  -99.  -99.  -99.   -99
   1956245 FE001 AP001    0.  134.  -99.  -99.  -99.  -99.   -99
   1957075 FE001 AP001    0.  134.  -99.  -99.  -99.  -99.   -99
   1957153 FE001 AP001    0.  134.  -99.  -99.  -99.  -99.   -99
   1957183 FE001 AP001    0.  134.  -99.  -99.  -99.  -99.   -99
   1957214 FE001 AP001    0.  134.  -99.  -99.  -99.  -99.   -99
   1957245 FE001 AP001    0.  134.  -99.  -99.  -99.  -99.   -99
   1958075 FE001 AP001    0.  134.  -99.  -99.  -99.  -99.   -99
   1958153 FE001 AP001    0.  134.  -99.  -99.  -99.  -99.   -99
   1958183 FE001 AP001    0.  134.  -99.  -99.  -99.  -99.   -99
   1958214 FE001 AP001    0.  134.  -99.  -99.  -99.  -99.   -99
   1958245 FE001 AP001    0.  134.  -99.  -99.  -99.  -99.   -99
   1959075 FE001 AP001    0.  134.  -99.  -99.  -99.  -99.   -99
   1959153 FE001 AP001    0.  134.  -99.  -99.  -99.  -99.   -99
   1959183 FE001 AP001    0.  134.  -99.  -99.  -99.  -99.   -99
   1959214 FE001 AP001    0.  134.  -99.  -99.  -99.  -99.   -99
   1959245 FE001 AP001    0.  134.  -99.  -99.  -99.  -99.   -99
*RESIDUES           
*CHEMICALS          
*TILLAGE            
*ENVIRONMENT        
*HARVEST            
   1959280 GS000     C   -99  100.    0.
*SOIL               
 UFWH940005  SCS         SL     180. Greenville sandy loam                             
 THORSBY,AL  U.S.A.       32.000 -86.700 CLAYEY, KAOLINITIC, THERMIC RHODIC PALEUDULTS     
 BN     0.13   9.0  0.60   76.  1.00  1.00 IB001 IB001 IB001 -99  
    5.       0.087 0.203 0.332 0.900  10.0  1.62 0.700  12.0  25.0   5.0  -9.0  5.00-99.00-99.00-99.00
   15.       0.113 0.228 0.335 0.840  8.70  1.61 0.680  18.0  21.6   4.6  -9.0  5.00-99.00-99.00-99.00
   28.       0.219 0.329 0.345 0.600  3.50  1.57 0.600  42.0   8.0   3.0  -9.0  5.00-99.00-99.00-99.00
   56.       0.299 0.413 0.428 0.300  3.50  1.53 0.300  60.0  15.0   2.0  -9.0  5.00-99.00-99.00-99.00
   83.       0.299 0.413 0.428 0.300  3.50  1.53 0.300  60.0  15.0   2.0  -9.0  5.00-99.00-99.00-99.00
  111.       0.299 0.413 0.428 0.300  3.50  1.53 0.300  60.0  15.0   2.0  -9.0  5.00-99.00-99.00-99.00
  139.       0.299 0.413 0.428 0.300  3.50  1.53 0.300  60.0  15.0   2.0  -9.0  5.00-99.00-99.00-99.00
  164.       0.299 0.413 0.428 0.200  3.50  1.53 0.150  60.0  15.0   2.0  -9.0  5.00-99.00-99.00-99.00
  189.       0.299 0.413 0.428 0.200  3.50  1.53 0.150  60.0  15.0   2.0  -9.0  5.00-99.00-99.00-99.00
                    
    5.-99.00 -99.0 -99.0 -99.0 -99.0 -99.0 -99.0 -99.0 -99.0 -99.0-99.00 -99.0 -99.0 -99.0 -99.0 -99.0  -99.
   15.-99.00 -99.0 -99.0 -99.0 -99.0 -99.0 -99.0 -99.0 -99.0 -99.0-99.00 -99.0 -99.0 -99.0 -99.0 -99.0  -99.
   28.-99.00 -99.0 -99.0 -99.0 -99.0 -99.0 -99.0 -99.0 -99.0 -99.0-99.00 -99.0 -99.0 -99.0 -99.0 -99.0  -99.
   56.-99.00 -99.0 -99.0 -99.0 -99.0 -99.0 -99.0 -99.0 -99.0 -99.0-99.00 -99.0 -99.0 -99.0 -99.0 -99.0  -99.
   83.-99.00 -99.0 -99.0 -99.0 -99.0 -99.0 -99.0 -99.0 -99.0 -99.0-99.00 -99.0 -99.0 -99.0 -99.0 -99.0  -99.
  111.-99.00 -99.0 -99.0 -99.0 -99.0 -99.0 -99.0 -99.0 -99.0 -99.0-99.00 -99.0 -99.0 -99.0 -99.0 -99.0  -99.
  139.-99.00 -99.0 -99.0 -99.0 -99.0 -99.0 -99.0 -99.0 -99.0 -99.0-99.00 -99.0 -99.0 -99.0 -99.0 -99.0  -99.
  164.-99.00 -99.0 -99.0 -99.0 -99.0 -99.0 -99.0 -99.0 -99.0 -99.0-99.00 -99.0 -99.0 -99.0 -99.0 -99.0  -99.
  189.-99.00 -99.0 -99.0 -99.0 -99.0 -99.0 -99.0 -99.0 -99.0 -99.0-99.00 -99.0 -99.0 -99.0 -99.0 -99.0  -99.
*CULTIVAR           
UF0001 PENSACOLA BAHIA  BH0001 12.00 0.200 99.00 10.00 18.00 33.00 25.00 1.440 285.0   2.0  0.01 0.020 15.00  2.05 20.00  78.0 0.115 0.035
